Version 4
SHEET 1 2376 884
WIRE 432 -48 -224 -48
WIRE 592 -48 528 -48
WIRE 848 -48 688 -48
WIRE 928 -48 848 -48
WIRE 1040 -48 928 -48
WIRE 848 -16 848 -48
WIRE 1344 0 1184 0
WIRE 1616 0 1344 0
WIRE 1776 0 1712 0
WIRE 2032 0 1872 0
WIRE 2320 0 2032 0
WIRE 2032 32 2032 0
WIRE 2320 32 2320 0
WIRE -224 48 -224 -48
WIRE 672 80 672 0
WIRE 848 80 848 48
WIRE 848 80 672 80
WIRE 1184 80 1184 0
WIRE 1632 80 1632 48
WIRE 1632 80 1424 80
WIRE 448 112 448 0
WIRE 672 112 672 80
WIRE 1424 112 1424 80
WIRE 1856 128 1856 48
WIRE 2032 128 2032 96
WIRE 2032 128 1856 128
WIRE 1632 160 1632 80
WIRE 1856 160 1856 128
WIRE -224 208 -224 128
WIRE 448 224 448 192
WIRE 672 224 672 192
WIRE 1184 240 1184 160
WIRE 1632 272 1632 240
WIRE 1856 272 1856 240
WIRE 848 384 848 80
WIRE 848 384 16 384
WIRE 2032 384 2032 128
WIRE 2032 384 848 384
WIRE 16 528 16 464
FLAG -224 208 0
FLAG 16 528 0
FLAG 448 224 0
FLAG 672 224 0
FLAG 928 -48 BATT_in
FLAG 1040 32 0
FLAG 1184 240 0
FLAG 1424 192 0
FLAG 1632 272 0
FLAG 1856 272 0
FLAG 1344 0 BATT_out
FLAG 2320 112 0
SYMBOL pmos 592 0 R270
SYMATTR InstName M1
SYMBOL voltage -224 32 R0
WINDOW 123 0 0 Left 0
WINDOW 39 0 0 Left 0
SYMATTR InstName Solar
SYMATTR Value PWL(0 6 0.1 15 0.2 15 0.3 0)
SYMBOL voltage 16 368 R0
WINDOW 123 0 0 Left 0
WINDOW 39 24 124 Left 2
SYMATTR InstName VBus
SYMATTR Value 5
SYMATTR SpiceLine Rser=0.01
SYMBOL pmos 528 0 M270
SYMATTR InstName M2
SYMBOL res 432 96 R0
SYMATTR InstName R1
SYMATTR Value 1k
SYMBOL res 656 96 R0
SYMATTR InstName R2
SYMATTR Value 100k
SYMBOL diode 864 48 R180
WINDOW 0 24 64 Left 2
WINDOW 3 24 0 Left 2
SYMATTR InstName D1
SYMBOL res 1024 -64 R0
SYMATTR InstName R3
SYMATTR Value 10
SYMBOL voltage 1184 64 R0
WINDOW 123 0 0 Left 0
WINDOW 39 24 124 Left 2
SYMATTR InstName Li_ion_cells
SYMATTR Value 4.2
SYMATTR SpiceLine Rser=0.075
SYMBOL pmos 1776 48 R270
SYMATTR InstName M3
SYMBOL pmos 1712 48 M270
SYMATTR InstName M4
SYMBOL voltage 1424 96 R0
WINDOW 123 0 0 Left 0
WINDOW 39 0 0 Left 0
SYMATTR InstName BMS_IC
SYMATTR Value 0
SYMBOL res 1616 144 R0
SYMATTR InstName R4
SYMATTR Value 100k
SYMBOL res 1840 144 R0
SYMATTR InstName R5
SYMATTR Value 100k
SYMBOL diode 2048 96 R180
WINDOW 0 24 64 Left 2
WINDOW 3 24 0 Left 2
SYMATTR InstName D2
SYMBOL res 2304 16 R0
SYMATTR InstName R6
SYMATTR Value 10
